DrugBank_d3670
  -OEChem-10031813213D

 29 30  0     0  0  0  0  0  0999 V2000
   -0.6574   -1.3289   -1.0926 C   0  0  0  0  0  0  0  0  0  0  0  0
   -1.4530    0.5622    2.8095 C   0  0  0  0  0  0  0  0  0  0  0  0
   -0.3575   -0.4697    3.2098 C   0  0  0  0  0  0  0  0  0  0  0  0
    1.9127    1.6985   -2.6500 C   0  0  0  0  0  0  0  0  0  0  0  0
   -1.5080    0.5475    1.2710 C   0  0  0  0  0  0  0  0  0  0  0  0
    0.1559   -1.0707    1.8903 C   0  0  0  0  0  0  0  0  0  0  0  0
    1.2976    1.8287   -1.2389 C   0  0  0  0  0  0  0  0  0  0  0  0
    1.2073    0.3302   -2.7671 C   0  0  0  0  0  0  0  0  0  0  0  0
   -0.1149    0.0458    0.8745 C   0  0  0  0  0  0  0  0  0  0  0  0
    1.1798    0.2887   -1.2241 C   0  0  0  0  0  0  0  0  0  0  0  0
    0.0554   -0.3095   -0.5317 N   0  0  0  0  0  0  0  0  0  0  0  0
   -1.5497   -1.9645   -0.5483 O   0  0  0  0  0  0  0  0  0  0  0  0
   -0.3465   -1.5411   -2.1421 H   0  0  0  0  0  0  0  0  0  0  0  0
   -2.4340    0.3163    3.2508 H   0  0  0  0  0  0  0  0  0  0  0  0
   -1.1852    1.5684    3.1777 H   0  0  0  0  0  0  0  0  0  0  0  0
    0.4653    0.0341    3.7477 H   0  0  0  0  0  0  0  0  0  0  0  0
   -0.7467   -1.2488    3.8874 H   0  0  0  0  0  0  0  0  0  0  0  0
    1.6655    2.4717   -3.3966 H   0  0  0  0  0  0  0  0  0  0  0  0
    3.0098    1.5878   -2.6038 H   0  0  0  0  0  0  0  0  0  0  0  0
   -2.2525   -0.1785    0.9080 H   0  0  0  0  0  0  0  0  0  0  0  0
   -1.7394    1.5336    0.8303 H   0  0  0  0  0  0  0  0  0  0  0  0
    1.2209   -1.3625    1.9262 H   0  0  0  0  0  0  0  0  0  0  0  0
   -0.4375   -1.9533    1.6016 H   0  0  0  0  0  0  0  0  0  0  0  0
    1.8861    2.3214   -0.4456 H   0  0  0  0  0  0  0  0  0  0  0  0
    0.2889    2.2763   -1.2831 H   0  0  0  0  0  0  0  0  0  0  0  0
    0.1856    0.4593   -3.1633 H   0  0  0  0  0  0  0  0  0  0  0  0
    1.7093   -0.4900   -3.3087 H   0  0  0  0  0  0  0  0  0  0  0  0
    0.6049    0.8627    1.0688 H   0  0  0  0  0  0  0  0  0  0  0  0
    2.1344   -0.1416   -0.8537 H   0  0  0  0  0  0  0  0  0  0  0  0
  1 11  1  0  0  0  0
  1 12  2  0  0  0  0
  2  3  1  0  0  0  0
  2  5  1  0  0  0  0
  3  6  1  0  0  0  0
  4  7  1  0  0  0  0
  4  8  1  0  0  0  0
  5  9  1  0  0  0  0
  6  9  1  0  0  0  0
  7 10  1  0  0  0  0
  8 10  1  0  0  0  0
  9 11  1  0  0  0  0
 10 11  1  0  0  0  0
  1 13  1  0  0  0  0
  2 14  1  0  0  0  0
  2 15  1  0  0  0  0
  3 16  1  0  0  0  0
  3 17  1  0  0  0  0
  4 18  1  0  0  0  0
  4 19  1  0  0  0  0
  5 20  1  0  0  0  0
  5 21  1  0  0  0  0
  6 22  1  0  0  0  0
  6 23  1  0  0  0  0
  7 24  1  0  0  0  0
  7 25  1  0  0  0  0
  8 26  1  0  0  0  0
  8 27  1  0  0  0  0
  9 28  1  0  0  0  0
 10 29  1  0  0  0  0
M  END
> <MM Szybki Single Point Energy>
0.761410252247

> <MM Szybki SD Energy>
-2.283488657509

> <QM Psi4 Final Opt. Energy (Har) mp2/def2-sv(p)>
-519.0558255841611

> <QM Psi4 Opt. Runtime (sec) mp2/def2-sv(p)>
1880.32

> <Original omega conformer number>
1

> <QM Psi4 Opt. Steps mp2/def2-sv(p)>
9

> <QM Psi4 Initial Opt. Energy (Har) mp2/def2-sv(p)>
-519.045643686195

$$$$
