@<TRIPOS>MOLECULE
DrugBank_d3670
   29    30     0     0     0
SMALL
USER_CHARGES

@<TRIPOS>ATOM
      1 N1         -0.4886   -1.4434   -1.2681 N.am      1 <0>        -0.4660
      2 C1         -0.1599   -1.6735   -2.5722 C.2       1 <0>         0.6644
      3 O1         -0.9294   -2.0307   -3.4536 O.2       1 <0>        -0.6023
      4 C2         -1.8285   -1.7337   -0.7651 C.3       1 <0>         0.1086
      5 C3          0.5295   -1.1481   -0.2792 C.3       1 <0>         0.0823
      6 C4         -2.9667   -0.9220   -1.3940 C.3       1 <0>        -0.0960
      7 C5         -4.2322   -1.6351   -0.8839 C.3       1 <0>        -0.0813
      8 C6         -3.7991   -3.0939   -0.5530 C.3       1 <0>        -0.0813
      9 C7         -2.3075   -3.1825   -0.9181 C.3       1 <0>        -0.0960
     10 C8          0.2744    0.0066    0.7145 C.3       1 <0>        -0.1018
     11 C9          1.7940    0.2822    0.6764 C.3       1 <0>        -0.0864
     12 C10         1.8283   -0.4248   -0.6956 C.3       1 <0>        -0.1018
     13 H1          0.9212   -1.4949   -2.7785 H         1 <0>         0.0246
     14 H2         -1.8034   -1.4973    0.3150 H         1 <0>         0.0519
     15 H3          0.7893   -2.0641    0.2926 H         1 <0>         0.0596
     16 H4         -2.8820   -1.0002   -2.4893 H         1 <0>         0.0518
     17 H5         -2.9224    0.1463   -1.1165 H         1 <0>         0.0518
     18 H6         -5.0425   -1.6038   -1.6322 H         1 <0>         0.0446
     19 H7         -4.6199   -1.1353    0.0214 H         1 <0>         0.0446
     20 H8         -3.9440   -3.3022    0.5221 H         1 <0>         0.0446
     21 H9         -4.3974   -3.8409   -1.1023 H         1 <0>         0.0446
     22 H10        -1.7412   -3.8861   -0.2817 H         1 <0>         0.0518
     23 H11        -2.1761   -3.4817   -1.9705 H         1 <0>         0.0518
     24 H12        -0.1999   -0.2255    1.6839 H         1 <0>         0.0585
     25 H13        -0.2898    0.8108    0.2100 H         1 <0>         0.0585
     26 H14         2.1319    1.3310    0.7247 H         1 <0>         0.0508
     27 H15         2.3294   -0.2989    1.4469 H         1 <0>         0.0508
     28 H16         1.6203    0.2975   -1.5034 H         1 <0>         0.0585
     29 H17         2.7083   -1.0334   -0.9660 H         1 <0>         0.0585
@<TRIPOS>BOND
     1    1    2 am
     2    1    4 1
     3    1    5 1
     4    2    3 2
     5    4    6 1
     6    4    9 1
     7    5   10 1
     8    5   12 1
     9    6    7 1
    10    7    8 1
    11    8    9 1
    12   10   11 1
    13   11   12 1
    14    2   13 1
    15    4   14 1
    16    5   15 1
    17    6   16 1
    18    6   17 1
    19    7   18 1
    20    7   19 1
    21    8   20 1
    22    8   21 1
    23    9   22 1
    24    9   23 1
    25   10   24 1
    26   10   25 1
    27   11   26 1
    28   11   27 1
    29   12   28 1
    30   12   29 1
