@<TRIPOS>MOLECULE
AlkEthOH_c1178
   28    27     0     0     0
SMALL
NO_CHARGES

@<TRIPOS>ATOM
      1 C1          0.7362    0.1996   -3.2249 C.3       1 <0>         0.0000
      2 C2          1.8308    0.2156    0.8535 C.3       1 <0>         0.0000
      3 C3          0.0952   -0.2664    2.5929 C.3       1 <0>         0.0000
      4 C4         -1.9330   -0.4042    0.1252 C.3       1 <0>         0.0000
      5 C5         -0.9413    1.7913    0.7708 C.3       1 <0>         0.0000
      6 C6          0.0136   -0.3731   -2.0204 C.3       1 <0>         0.0000
      7 C7          0.4271   -0.3361    1.0997 C.3       1 <0>         0.0000
      8 C8         -0.6337    0.3980    0.2219 C.3       1 <0>         0.0000
      9 O1          0.3931   -1.7123    0.6989 O.3       1 <0>         0.0000
     10 O2         -0.1018    0.6795   -1.0751 O.3       1 <0>         0.0000
     11 H1          0.1814    1.0670   -3.6201 H         1 <0>         0.0000
     12 H2          1.7478    0.5374   -2.9425 H         1 <0>         0.0000
     13 H3          0.8256   -0.5594   -4.0221 H         1 <0>         0.0000
     14 H4          2.1216    0.0752   -0.1981 H         1 <0>         0.0000
     15 H5          1.8989    1.2896    1.0935 H         1 <0>         0.0000
     16 H6          2.5532   -0.3207    1.4990 H         1 <0>         0.0000
     17 H7         -0.9284   -0.6254    2.7915 H         1 <0>         0.0000
     18 H8          0.7950   -0.9236    3.1431 H         1 <0>         0.0000
     19 H9          0.2079    0.7528    2.9982 H         1 <0>         0.0000
     20 H10        -1.7600   -1.4221   -0.2518 H         1 <0>         0.0000
     21 H11        -2.4130   -0.4866    1.1148 H         1 <0>         0.0000
     22 H12        -2.6268    0.1253   -0.5519 H         1 <0>         0.0000
     23 H13        -0.0205    2.3879    0.8832 H         1 <0>         0.0000
     24 H14        -1.5866    2.3060    0.0395 H         1 <0>         0.0000
     25 H15        -1.4673    1.7473    1.7382 H         1 <0>         0.0000
     26 H16         0.5638   -1.2299   -1.5961 H         1 <0>         0.0000
     27 H17        -0.9881   -0.7370   -2.3235 H         1 <0>         0.0000
     28 H18         1.0957   -2.1746    1.1916 H         1 <0>         0.0000
@<TRIPOS>BOND
     1    1    6 1
     2    2    7 1
     3    3    7 1
     4    4    8 1
     5    5    8 1
     6    6   10 1
     7    7    8 1
     8    7    9 1
     9    8   10 1
    10    1   11 1
    11    1   12 1
    12    1   13 1
    13    2   14 1
    14    2   15 1
    15    2   16 1
    16    3   17 1
    17    3   18 1
    18    3   19 1
    19    4   20 1
    20    4   21 1
    21    4   22 1
    22    5   23 1
    23    5   24 1
    24    5   25 1
    25    6   26 1
    26    6   27 1
    27    9   28 1
