@<TRIPOS>MOLECULE
GBI
   23    24     0     0     0
SMALL
NO_CHARGES

@<TRIPOS>ATOM
      1 C1         -0.0239    0.8873   -3.5350 C.ar      1 <0>         0.0000
      2 C2         -1.4174    1.0661   -3.3553 C.ar      1 <0>         0.0000
      3 C3          0.8037    0.4918   -2.4861 C.ar      1 <0>         0.0000
      4 C4         -2.0337    0.8562   -2.1215 C.ar      1 <0>         0.0000
      5 C5          0.1994    0.2760   -1.2366 C.ar      1 <0>         0.0000
      6 C6         -1.1943    0.4587   -1.0724 C.ar      1 <0>         0.0000
      7 C7         -0.2398   -0.1651    0.8111 C.2       1 <0>         0.0000
      8 C8          1.0444   -0.8590    2.7742 C.cat     1 <0>         0.0000
      9 N1          0.7652   -0.1170   -0.0317 N.2       1 <0>         0.0000
     10 N2         -1.4429    0.1643    0.2625 N.pl3     1 <0>         0.0000
     11 N3          2.1672   -0.8678    2.0801 N.pl3     1 <0>         0.0000
     12 N4          1.0114   -1.1768    4.0766 N.pl3     1 <0>         0.0000
     13 N5         -0.1202   -0.5212    2.1655 N.pl3     1 <0>         0.0000
     14 H1          0.4101    1.0654   -4.5251 H         1 <0>         0.0000
     15 H2         -2.0290    1.3781   -4.2094 H         1 <0>         0.0000
     16 H3          1.8811    0.3524   -2.6208 H         1 <0>         0.0000
     17 H4         -3.1118    0.9962   -1.9897 H         1 <0>         0.0000
     18 H5         -2.3512    0.1961    0.7197 H         1 <0>         0.0000
     19 H6          3.0531   -1.1168    2.5130 H         1 <0>         0.0000
     20 H7          2.0975   -0.6080    1.0699 H         1 <0>         0.0000
     21 H8          1.8613   -1.4363    4.5702 H         1 <0>         0.0000
     22 H9          0.1492   -1.1701    4.6132 H         1 <0>         0.0000
     23 H10        -0.9670   -0.5267    2.7283 H         1 <0>         0.0000
@<TRIPOS>BOND
     1    1    2 ar
     2    1    3 ar
     3    2    4 ar
     4    3    5 ar
     5    4    6 ar
     6    5    6 ar
     7    5    9 1
     8    6   10 1
     9    7    9 2
    10    7   10 1
    11    7   13 1
    12    8   11 1
    13    8   12 1
    14    8   13 1
    15    1   14 1
    16    2   15 1
    17    3   16 1
    18    4   17 1
    19   10   18 1
    20   11   19 1
    21   11   20 1
    22   12   21 1
    23   12   22 1
    24   13   23 1
@<TRIPOS>MOLECULE
GBI
   23    24     0     0     0
SMALL
NO_CHARGES

@<TRIPOS>ATOM
      1 C1          2.0682   -0.3844    0.6845 C.ar      1 <0>         0.0000
      2 C2          0.6835   -0.3049    0.8547 C.ar      1 <0>         0.0000
      3 C3          2.9044   -0.7412    1.7510 C.ar      1 <0>         0.0000
      4 C4          0.0855   -0.5843    2.0885 C.ar      1 <0>         0.0000
      5 C5          2.3205   -1.0265    2.9935 C.ar      1 <0>         0.0000
      6 C6          0.9423   -0.9481    3.1283 C.ar      1 <0>         0.0000
      7 C7          1.9166   -1.5973    5.0336 C.2       1 <0>         0.0000
      8 C8          3.1210   -2.2960    6.9886 C.cat     1 <0>         0.0000
      9 N1          2.9063   -1.4011    4.1777 N.2       1 <0>         0.0000
     10 N2          0.7138   -1.3040    4.4315 N.pl3     1 <0>         0.0000
     11 N3          4.3179   -2.0432    6.4531 N.pl3     1 <0>         0.0000
     12 N4          3.0789   -2.8197    8.2191 N.pl3     1 <0>         0.0000
     13 N5          1.9679   -2.0398    6.3397 N.pl3     1 <0>         0.0000
     14 H1          2.5049   -0.1678   -0.2896 H         1 <0>         0.0000
     15 H2          0.0556   -0.0232    0.0094 H         1 <0>         0.0000
     16 H3          3.9799   -0.8043    1.6172 H         1 <0>         0.0000
     17 H4         -0.9911   -0.5266    2.2220 H         1 <0>         0.0000
     18 H5         -0.1877   -1.3647    4.8808 H         1 <0>         0.0000
     19 H6          5.1743   -2.2229    6.9546 H         1 <0>         0.0000
     20 H7          4.3594   -1.6603    5.5127 H         1 <0>         0.0000
     21 H8          3.9324   -3.0275    8.7177 H         1 <0>         0.0000
     22 H9          2.2002   -3.0572    8.6574 H         1 <0>         0.0000
     23 H10         1.1230   -2.2039    6.8739 H         1 <0>         0.0000
@<TRIPOS>BOND
     1    1    2 ar
     2    1    3 ar
     3    2    4 ar
     4    3    5 ar
     5    4    6 ar
     6    5    6 ar
     7    5    9 1
     8    6   10 1
     9    7    9 2
    10    7   10 1
    11    7   13 1
    12    8   11 1
    13    8   12 1
    14    8   13 1
    15    1   14 1
    16    2   15 1
    17    3   16 1
    18    4   17 1
    19   10   18 1
    20   11   19 1
    21   11   20 1
    22   12   21 1
    23   12   22 1
    24   13   23 1
