@<TRIPOS>MOLECULE
DrugBank_d3670
   29    30     0     0     0
SMALL
USER_CHARGES

@<TRIPOS>ATOM
      1 N1         -0.5153   -1.3115   -1.2230 N.am      1 <0>        -0.4660
      2 C1         -0.1689   -1.4919   -2.5685 C.2       1 <0>         0.6644
      3 O1         -0.7945   -2.2117   -3.3246 O.2       1 <0>        -0.6023
      4 C2         -1.8760   -1.5531   -0.6775 C.3       1 <0>         0.1086
      5 C3          0.3817   -0.1799   -0.8027 C.3       1 <0>         0.0823
      6 C4         -3.0503   -0.9763   -1.4915 C.3       1 <0>        -0.0960
      7 C5         -4.2694   -1.7680   -0.9911 C.3       1 <0>        -0.0813
      8 C6         -3.7369   -3.1769   -0.6576 C.3       1 <0>        -0.0813
      9 C7         -2.2082   -3.0442   -0.4738 C.3       1 <0>        -0.0960
     10 C8          1.7600   -0.9233   -0.6333 C.3       1 <0>        -0.1018
     11 C9          1.8710   -0.0953    0.6868 C.3       1 <0>        -0.0864
     12 C10         0.3210   -0.2669    0.7651 C.3       1 <0>        -0.1018
     13 H1          0.7310   -0.9458   -2.9110 H         1 <0>         0.0246
     14 H2         -1.9630   -1.0856    0.3097 H         1 <0>         0.0519
     15 H3          0.3313    0.7977   -1.2999 H         1 <0>         0.0596
     16 H4         -3.1665    0.1037   -1.3379 H         1 <0>         0.0518
     17 H5         -2.9254   -1.1592   -2.5649 H         1 <0>         0.0518
     18 H6         -4.6613   -1.2990   -0.0789 H         1 <0>         0.0446
     19 H7         -5.0759   -1.7966   -1.7352 H         1 <0>         0.0446
     20 H8         -4.2184   -3.5776    0.2437 H         1 <0>         0.0446
     21 H9         -3.9486   -3.8638   -1.4877 H         1 <0>         0.0446
     22 H10        -1.6961   -3.6609   -1.2239 H         1 <0>         0.0518
     23 H11        -1.8869   -3.3852    0.5182 H         1 <0>         0.0518
     24 H12         1.7234   -2.0102   -0.4738 H         1 <0>         0.0585
     25 H13         2.5234   -0.7051   -1.3880 H         1 <0>         0.0585
     26 H14         2.4461   -0.5584    1.4962 H         1 <0>         0.0508
     27 H15         2.2150    0.9386    0.5562 H         1 <0>         0.0508
     28 H16        -0.2233    0.5399    1.2674 H         1 <0>         0.0585
     29 H17         0.0272   -1.2254    1.2135 H         1 <0>         0.0585
@<TRIPOS>BOND
     1    1    2 am
     2    1    4 1
     3    1    5 1
     4    2    3 2
     5    4    6 1
     6    4    9 1
     7    5   10 1
     8    5   12 1
     9    6    7 1
    10    7    8 1
    11    8    9 1
    12   10   11 1
    13   11   12 1
    14    2   13 1
    15    4   14 1
    16    5   15 1
    17    6   16 1
    18    6   17 1
    19    7   18 1
    20    7   19 1
    21    8   20 1
    22    8   21 1
    23    9   22 1
    24    9   23 1
    25   10   24 1
    26   10   25 1
    27   11   26 1
    28   11   27 1
    29   12   28 1
    30   12   29 1
